test/resources/V1_3/internalConnections.xml
<?xml version="1.0" encoding="UTF-8"?>
<iidm:network xmlns:iidm="http://www.powsybl.org/schema/iidm/1_3" id="internal-connections" caseDate="2018-11-08T12:33:26.208000+01:00" forecastDistance="0" sourceFormat="test">
    <iidm:substation id="s1" country="ES">
        <iidm:voltageLevel id="vl1" nominalV="400" topologyKind="NODE_BREAKER">
            <iidm:nodeBreakerTopology>
                <iidm:busbarSection id="b1" node="2"/>
                <iidm:switch id="br1" kind="BREAKER" retained="false" open="false" node1="1" node2="2"/>
                <iidm:internalConnection node1="0" node2="1"/>
                <iidm:internalConnection node1="3" node2="4"/>
            </iidm:nodeBreakerTopology>
            <iidm:generator id="g1" energySource="OTHER" minP="0" maxP="100" voltageRegulatorOn="true" targetP="10" targetV="400" node="0">
                <iidm:minMaxReactiveLimits minQ="-1.7976931348623157e+308" maxQ="1.7976931348623157e+308"/>
            </iidm:generator>
        </iidm:voltageLevel>
    </iidm:substation>
    <iidm:substation id="s2" country="ES">
        <iidm:voltageLevel id="vl2" nominalV="400" topologyKind="NODE_BREAKER">
            <iidm:nodeBreakerTopology>
                <iidm:busbarSection id="b2" node="2"/>
                <iidm:switch id="br2" kind="BREAKER" retained="false" open="false" node1="1" node2="2"/>
                <iidm:internalConnection node1="0" node2="1"/>
                <iidm:internalConnection node1="3" node2="4"/>
            </iidm:nodeBreakerTopology>
            <iidm:load id="l2" loadType="UNDEFINED" p0="10" q0="1" node="0"/>
        </iidm:voltageLevel>
    </iidm:substation>
    <iidm:line id="line1-2" r="0.10000000000000001" x="10" g1="0" b1="0" g2="0" b2="0" node1="4" voltageLevelId1="vl1" node2="4" voltageLevelId2="vl2"/>
</iidm:network>
